data_image0
_chemical_formula_structural       BN2B
_chemical_formula_sum              "B2 N2"
_cell_length_a       2.5103
_cell_length_b       4.34799
_cell_length_c       15
_cell_angle_alpha    90
_cell_angle_beta     90
_cell_angle_gamma    90

_space_group_name_H-M_alt    "P 1"
_space_group_IT_number       1

loop_
  _space_group_symop_operation_xyz
  'x, y, z'

loop_
  _atom_site_type_symbol
  _atom_site_label
  _atom_site_symmetry_multiplicity
  _atom_site_fract_x
  _atom_site_fract_y
  _atom_site_fract_z
  _atom_site_occupancy
  B   B1        1.0  0.99999  0.33332  0.50000  1.0000
  N   N1        1.0  0.49998  0.16667  0.50000  1.0000
  N   N2        1.0  0.99999  0.66667  0.50000  1.0000
  B   B2        1.0  0.49999  0.83332  0.50000  1.0000
